Version 4
SHEET 1 1748 680
WIRE 720 -288 592 -288
WIRE 1040 -288 720 -288
WIRE 1408 -288 1104 -288
WIRE 1504 -288 1408 -288
WIRE 1584 -288 1504 -288
WIRE 592 -272 592 -288
WIRE 1504 -256 1504 -288
WIRE 1504 -256 1456 -256
WIRE 1552 -256 1504 -256
WIRE 1456 -224 1456 -256
WIRE 1552 -224 1552 -256
WIRE 1376 -208 1280 -208
WIRE 592 -176 592 -192
WIRE 1104 -176 1104 -288
WIRE 1104 -176 1056 -176
WIRE 1136 -176 1104 -176
WIRE 1344 -176 1280 -176
WIRE 720 -160 720 -288
WIRE 880 -144 832 -144
WIRE 960 -144 880 -144
WIRE 1456 -128 1456 -160
WIRE 1504 -128 1456 -128
WIRE 1552 -128 1552 -160
WIRE 1552 -128 1504 -128
WIRE 832 -112 832 -144
WIRE 880 -112 880 -144
WIRE 960 -112 960 -144
WIRE 1504 -96 1504 -128
WIRE 1056 -48 1056 -176
WIRE 1072 -48 1056 -48
WIRE 1344 -48 1344 -176
WIRE 1344 -48 1328 -48
WIRE 720 -16 720 -80
WIRE 816 -16 720 -16
WIRE 880 -16 880 -48
WIRE 960 -16 960 -48
WIRE 960 -16 880 -16
WIRE 1040 -16 1040 -288
WIRE 1040 -16 960 -16
WIRE 1072 -16 1040 -16
WIRE 1408 -16 1408 -288
WIRE 1408 -16 1328 -16
WIRE 960 0 880 0
WIRE 1040 16 1040 -16
WIRE 1072 16 1040 16
WIRE 1584 16 1328 16
WIRE 720 32 720 -16
WIRE 880 32 880 0
WIRE 1040 48 1040 16
WIRE 1072 48 1040 48
WIRE 1584 48 1328 48
WIRE 816 80 816 -16
WIRE 960 80 960 64
WIRE 960 80 816 80
WIRE 1072 80 960 80
WIRE 1584 80 1328 80
WIRE 1040 112 1040 48
WIRE 1072 112 1040 112
WIRE 1584 112 1328 112
WIRE 624 144 592 144
WIRE 720 144 720 112
WIRE 720 144 688 144
WIRE 848 144 720 144
WIRE 1072 144 848 144
WIRE 1584 144 1328 144
WIRE 1072 176 1040 176
WIRE 1584 176 1328 176
WIRE 1040 208 1040 176
WIRE 1072 208 1040 208
WIRE 1584 208 1328 208
WIRE 720 224 720 144
WIRE 1040 240 1040 208
WIRE 1072 240 1040 240
WIRE 1584 240 1328 240
WIRE 848 256 848 144
WIRE 1040 272 1040 240
WIRE 1072 272 1040 272
WIRE 1376 272 1376 -208
WIRE 1376 272 1328 272
WIRE 1072 304 1056 304
WIRE 1376 304 1376 272
WIRE 1376 304 1328 304
WIRE 720 416 720 304
WIRE 720 416 672 416
WIRE 848 416 848 320
WIRE 848 416 720 416
WIRE 1040 416 1040 272
WIRE 1040 416 848 416
WIRE 1056 416 1056 304
WIRE 1376 416 1376 304
WIRE 1376 416 1056 416
WIRE 1584 416 1376 416
WIRE 672 448 672 416
WIRE 1376 464 1376 416
FLAG 592 -176 0
FLAG 1584 240 RPi_02
IOPIN 1584 240 Out
FLAG 1584 208 RPi_03
IOPIN 1584 208 Out
FLAG 1584 176 RPi_04
IOPIN 1584 176 Out
FLAG 1584 144 RPi_07
IOPIN 1584 144 Out
FLAG 1584 112 RPi_08
IOPIN 1584 112 Out
FLAG 1584 80 RPi_09
IOPIN 1584 80 Out
FLAG 1584 48 RPi_10
IOPIN 1584 48 Out
FLAG 1584 16 RPi_11
IOPIN 1584 16 Out
FLAG 672 448 0
FLAG 592 144 SCOPE
IOPIN 592 144 In
FLAG 1584 416 RPi_GND
IOPIN 1584 416 In
FLAG 1584 -288 RPi_5V
IOPIN 1584 -288 In
FLAG 832 -112 0
FLAG 880 32 0
FLAG 1376 464 COM
FLAG 1504 -96 COM
SYMBOL AutoGenerated\\ECS-2200B-100 1200 -192 R0
SYMATTR InstName U1
SYMBOL AutoGenerated\\TLC5510INSR 1200 128 R180
SYMATTR InstName U2
SYMBOL voltage 592 -288 R0
WINDOW 123 0 0 Left 0
WINDOW 39 0 0 Left 0
SYMATTR InstName V1
SYMATTR Value 5V
SYMBOL res 704 -176 R0
SYMATTR InstName R3
SYMATTR Value 120
SYMBOL res 704 16 R0
SYMATTR InstName R4
SYMATTR Value 220
SYMBOL res 704 208 R0
SYMATTR InstName R5
SYMATTR Value 220
SYMBOL cap 688 128 R90
WINDOW 0 0 32 VBottom 2
WINDOW 3 32 32 VTop 2
SYMATTR InstName C1
SYMBOL zener 864 320 R180
WINDOW 0 24 64 Left 2
WINDOW 3 24 0 Left 2
SYMATTR InstName D2
SYMATTR Value 4V
SYMBOL cap 944 -112 R0
SYMATTR InstName C2
SYMATTR Value 0.1µF
SYMBOL polcap 864 -112 R0
WINDOW 3 24 56 Left 2
SYMATTR InstName C3
SYMATTR Value 4.7µF
SYMATTR Description Capacitor
SYMATTR Type cap
SYMBOL polcap 944 0 R0
WINDOW 3 24 56 Left 2
SYMATTR InstName C4
SYMATTR Value 10µF
SYMATTR Description Capacitor
SYMATTR Type cap
SYMBOL cap 1536 -224 R0
SYMATTR InstName C5
SYMATTR Value 0.1µF
SYMBOL polcap 1440 -224 R0
WINDOW 3 24 56 Left 2
SYMATTR InstName C6
SYMATTR Value 4.7µF
SYMATTR Description Capacitor
SYMATTR Type cap
