Version 4
SHEET 1 1716 680
WIRE 944 -288 816 -288
WIRE 1040 -288 944 -288
WIRE 1408 -288 1040 -288
WIRE 816 -272 816 -288
WIRE 1376 -208 1280 -208
WIRE 816 -176 816 -192
WIRE 1040 -176 1040 -288
WIRE 1136 -176 1040 -176
WIRE 1344 -176 1280 -176
WIRE 944 -160 944 -288
WIRE 1040 -48 1040 -176
WIRE 1072 -48 1040 -48
WIRE 1344 -48 1344 -176
WIRE 1344 -48 1328 -48
WIRE 944 -16 944 -80
WIRE 1008 -16 944 -16
WIRE 1040 -16 1040 -48
WIRE 1072 -16 1040 -16
WIRE 1408 -16 1408 -288
WIRE 1408 -16 1328 -16
WIRE 1040 16 1040 -16
WIRE 1072 16 1040 16
WIRE 1472 16 1328 16
WIRE 944 32 944 -16
WIRE 1040 48 1040 16
WIRE 1072 48 1040 48
WIRE 1472 48 1328 48
WIRE 1008 80 1008 -16
WIRE 1072 80 1008 80
WIRE 1472 80 1328 80
WIRE 1040 112 1040 48
WIRE 1072 112 1040 112
WIRE 1472 112 1328 112
WIRE 848 144 816 144
WIRE 944 144 944 112
WIRE 944 144 912 144
WIRE 1072 144 944 144
WIRE 1472 144 1328 144
WIRE 1072 176 1040 176
WIRE 1472 176 1328 176
WIRE 1040 208 1040 176
WIRE 1072 208 1040 208
WIRE 1472 208 1328 208
WIRE 944 224 944 144
WIRE 1040 240 1040 208
WIRE 1072 240 1040 240
WIRE 1472 240 1328 240
WIRE 1040 272 1040 240
WIRE 1072 272 1040 272
WIRE 1408 272 1328 272
WIRE 1040 304 1040 272
WIRE 1072 304 1040 304
WIRE 1408 304 1408 272
WIRE 1408 304 1328 304
WIRE 944 416 944 304
WIRE 944 416 896 416
WIRE 1040 416 1040 304
WIRE 1040 416 944 416
WIRE 1376 416 1376 -208
WIRE 1376 416 1040 416
WIRE 1408 416 1408 304
WIRE 1408 416 1376 416
WIRE 896 448 896 416
FLAG 816 -176 0
FLAG 1472 240 RPi_02
FLAG 1472 208 RPi_03
FLAG 1472 176 RPi_04
FLAG 1472 144 RPi_07
FLAG 1472 112 RPi_08
FLAG 1472 80 RPi_09
FLAG 1472 48 RPi_10
FLAG 1472 16 RPi_11
FLAG 896 448 0
FLAG 816 144 SCOPE
SYMBOL AutoGenerated\\ECS-2200B-100 1200 -192 R0
SYMATTR InstName U1
SYMBOL AutoGenerated\\TLC5510INSR 1200 128 R180
SYMATTR InstName U2
SYMBOL voltage 816 -288 R0
WINDOW 123 0 0 Left 0
WINDOW 39 0 0 Left 0
SYMATTR InstName V1
SYMATTR Value 5V
SYMBOL res 928 -176 R0
SYMATTR InstName R3
SYMATTR Value 120
SYMBOL res 928 16 R0
SYMATTR InstName R4
SYMATTR Value 220
SYMBOL res 928 208 R0
SYMATTR InstName R5
SYMATTR Value 220
SYMBOL cap 912 128 R90
WINDOW 0 0 32 VBottom 2
WINDOW 3 32 32 VTop 2
SYMATTR InstName C1
