.SUBCKT TLC5510INSR ¬OE DGND D1 D2 D3 D4 D5 D6 D7 D8 V_DDD CLK DGND REFB REFBS AGND AGND ANALOG_IN V_DDA REFT REFTS V_DDA V_DDA V_DDD
